5353365
  -OEChem-06242614352D

 38 40  0     0  0  0  0  0  0999 V2000
   10.6279    0.8660    0.0000 Cl  0  0  0  0  0  0  0  0  0  0  0  0
    3.7321    2.0000    0.0000 O   0  0  0  0  0  0  0  0  0  0  0  0
    2.0000   -1.0000    0.0000 O   0  0  0  0  0  0  0  0  0  0  0  0
    5.5443    0.8047    0.0000 N   0  0  0  0  0  0  0  0  0  0  0  0
    3.7321   -1.0000    0.0000 N   0  0  0  0  0  0  0  0  0  0  0  0
    2.8660    0.5000    0.0000 N   0  0  0  0  0  0  0  0  0  0  0  0
    5.5443   -0.8047    0.0000 N   0  0  0  0  0  0  0  0  0  0  0  0
    4.5981    0.5000    0.0000 C   0  0  0  0  0  0  0  0  0  0  0  0
    4.5981   -0.5000    0.0000 C   0  0  0  0  0  0  0  0  0  0  0  0
    6.1279   -0.0000    0.0000 C   0  0  0  0  0  0  0  0  0  0  0  0
    3.7321    1.0000    0.0000 C   0  0  0  0  0  0  0  0  0  0  0  0
    2.8660   -0.5000    0.0000 C   0  0  0  0  0  0  0  0  0  0  0  0
    5.8550    1.7553    0.0000 C   0  0  0  0  0  0  0  0  0  0  0  0
    3.7321   -2.0000    0.0000 C   0  0  0  0  0  0  0  0  0  0  0  0
    7.1279   -0.0000    0.0000 C   0  0  0  0  0  0  0  0  0  0  0  0
    2.0000    1.0000    0.0000 C   0  0  0  0  0  0  0  0  0  0  0  0
    7.6279   -0.8660    0.0000 C   0  0  0  0  0  0  0  0  0  0  0  0
    8.6279   -0.8660    0.0000 C   0  0  0  0  0  0  0  0  0  0  0  0
    9.1279   -0.0000    0.0000 C   0  0  0  0  0  0  0  0  0  0  0  0
    9.1279   -1.7321    0.0000 C   0  0  0  0  0  0  0  0  0  0  0  0
   10.1279   -0.0000    0.0000 C   0  0  0  0  0  0  0  0  0  0  0  0
   10.1279   -1.7321    0.0000 C   0  0  0  0  0  0  0  0  0  0  0  0
   10.6279   -0.8660    0.0000 C   0  0  0  0  0  0  0  0  0  0  0  0
    6.4443    1.5626    0.0000 H   0  0  0  0  0  0  0  0  0  0  0  0
    6.0476    2.3446    0.0000 H   0  0  0  0  0  0  0  0  0  0  0  0
    5.2656    1.9479    0.0000 H   0  0  0  0  0  0  0  0  0  0  0  0
    3.1121   -2.0000    0.0000 H   0  0  0  0  0  0  0  0  0  0  0  0
    3.7321   -2.6200    0.0000 H   0  0  0  0  0  0  0  0  0  0  0  0
    4.3521   -2.0000    0.0000 H   0  0  0  0  0  0  0  0  0  0  0  0
    7.4379    0.5369    0.0000 H   0  0  0  0  0  0  0  0  0  0  0  0
    2.3100    1.5369    0.0000 H   0  0  0  0  0  0  0  0  0  0  0  0
    1.4631    1.3100    0.0000 H   0  0  0  0  0  0  0  0  0  0  0  0
    1.6900    0.4631    0.0000 H   0  0  0  0  0  0  0  0  0  0  0  0
    7.3179   -1.4030    0.0000 H   0  0  0  0  0  0  0  0  0  0  0  0
    8.8179    0.5369    0.0000 H   0  0  0  0  0  0  0  0  0  0  0  0
    8.8179   -2.2690    0.0000 H   0  0  0  0  0  0  0  0  0  0  0  0
   10.4379   -2.2690    0.0000 H   0  0  0  0  0  0  0  0  0  0  0  0
   11.2479   -0.8660    0.0000 H   0  0  0  0  0  0  0  0  0  0  0  0
  1 21  1  0  0  0  0
  2 11  2  0  0  0  0
  3 12  2  0  0  0  0
  4  8  1  0  0  0  0
  4 10  1  0  0  0  0
  4 13  1  0  0  0  0
  5  9  1  0  0  0  0
  5 12  1  0  0  0  0
  5 14  1  0  0  0  0
  6 11  1  0  0  0  0
  6 12  1  0  0  0  0
  6 16  1  0  0  0  0
  7  9  1  0  0  0  0
  7 10  2  0  0  0  0
  8  9  2  0  0  0  0
  8 11  1  0  0  0  0
 10 15  1  0  0  0  0
 13 24  1  0  0  0  0
 13 25  1  0  0  0  0
 13 26  1  0  0  0  0
 14 27  1  0  0  0  0
 14 28  1  0  0  0  0
 14 29  1  0  0  0  0
 15 17  2  0  0  0  0
 15 30  1  0  0  0  0
 16 31  1  0  0  0  0
 16 32  1  0  0  0  0
 16 33  1  0  0  0  0
 17 18  1  0  0  0  0
 17 34  1  0  0  0  0
 18 19  2  0  0  0  0
 18 20  1  0  0  0  0
 19 21  1  0  0  0  0
 19 35  1  0  0  0  0
 20 22  2  0  0  0  0
 20 36  1  0  0  0  0
 21 23  2  0  0  0  0
 22 23  1  0  0  0  0
 22 37  1  0  0  0  0
 23 38  1  0  0  0  0
M  END
> <PUBCHEM_COMPOUND_CID>
5353365

> <PUBCHEM_COMPOUND_CANONICALIZED>
1

> <PUBCHEM_CACTVS_COMPLEXITY>
526

> <PUBCHEM_CACTVS_HBOND_ACCEPTOR>
3

> <PUBCHEM_CACTVS_HBOND_DONOR>
0

> <PUBCHEM_CACTVS_ROTATABLE_BOND>
2

> <PUBCHEM_CACTVS_SUBSKEYS>
AAADccB7sAAEAAAAAAAAAAAAAAAAAWAAAAA8QAAAAAAAAFgBwAAAHgIAAAAADAqBnyQzsJcMEACoAydydACCgC0nFaAJ2AG4VtiIaCrBWzCUIIgohyLIiGcAgAAOAAAAIAAAAAAAAABAAAAAAAAAAAAAAA==

> <PUBCHEM_IUPAC_OPENEYE_NAME>
8-[(E)-2-(3-chlorophenyl)vinyl]-1,3,7-trimethyl-purine-2,6-dione

> <PUBCHEM_IUPAC_CAS_NAME>
8-[(E)-2-(3-chlorophenyl)ethenyl]-1,3,7-trimethylpurine-2,6-dione

> <PUBCHEM_IUPAC_NAME_MARKUP>
8-[(<I>E</I>)-2-(3-chlorophenyl)ethenyl]-1,3,7-trimethylpurine-2,6-dione

> <PUBCHEM_IUPAC_NAME>
8-[(E)-2-(3-chlorophenyl)ethenyl]-1,3,7-trimethylpurine-2,6-dione

> <PUBCHEM_IUPAC_SYSTEMATIC_NAME>
8-[(E)-2-(3-chlorophenyl)ethenyl]-1,3,7-trimethyl-purine-2,6-dione

> <PUBCHEM_IUPAC_TRADITIONAL_NAME>
8-[(E)-2-(3-chlorophenyl)vinyl]-1,3,7-trimethyl-xanthine

> <PUBCHEM_IUPAC_INCHI>
InChI=1S/C16H15ClN4O2/c1-19-12(8-7-10-5-4-6-11(17)9-10)18-14-13(19)15(22)21(3)16(23)20(14)2/h4-9H,1-3H3/b8-7+

> <PUBCHEM_IUPAC_INCHIKEY>
WBWFIUAVMCNYPG-BQYQJAHWSA-N

> <PUBCHEM_XLOGP3_AA>
2.5

> <PUBCHEM_EXACT_MASS>
330.0883534

> <PUBCHEM_MOLECULAR_FORMULA>
C16H15ClN4O2

> <PUBCHEM_MOLECULAR_WEIGHT>
330.77

> <PUBCHEM_SMILES>
CN1C(=NC2=C1C(=O)N(C(=O)N2C)C)/C=C/C3=CC(=CC=C3)Cl

> <PUBCHEM_CONNECTIVITY_SMILES>
CN1C(=NC2=C1C(=O)N(C(=O)N2C)C)C=CC3=CC(=CC=C3)Cl

> <PUBCHEM_CACTVS_TPSA>
58.4

> <PUBCHEM_MONOISOTOPIC_WEIGHT>
330.0883534

> <PUBCHEM_TOTAL_CHARGE>
0

> <PUBCHEM_HEAVY_ATOM_COUNT>
23

> <PUBCHEM_ATOM_DEF_STEREO_COUNT>
0

> <PUBCHEM_ATOM_UDEF_STEREO_COUNT>
0

> <PUBCHEM_BOND_DEF_STEREO_COUNT>
1

> <PUBCHEM_BOND_UDEF_STEREO_COUNT>
0

> <PUBCHEM_ISOTOPIC_ATOM_COUNT>
0

> <PUBCHEM_COMPONENT_COUNT>
1

> <PUBCHEM_CACTVS_TAUTO_COUNT>
-1

> <PUBCHEM_COORDINATE_TYPE>
1
5
255

> <PUBCHEM_BONDANNOTATIONS>
18  19  8
18  20  8
19  21  8
20  22  8
21  23  8
22  23  8
4  10  8
4  8  8
5  12  8
5  9  8
6  11  8
6  12  8
7  10  8
7  9  8
8  11  8
8  9  8

$$$$
